TION 1204061
MENT 950554
EMEN 769690
DELA 681728
IQUE 672864
ATIO 663590
ELLE 562409
ESDE 554158
DANS 524845
POUR 483584
EDES 461546
ONDE 422954
EPAR 393724
IOND 373981
EDEL 366806
IONS 360617
ILLE 356053
ANSL 351884
ENTE 351189
AIRE 350376
PLUS 339810
NTRE 338114
QUEL 335658
NTDE 334296
QUES 325952
ENTA 323764
LEME 323310
SONT 322336
COMM 307474
ENTD 307265
PRES 305792
EURS 300527
OMME 294151
ECON 292230
REDE 291930
OUVE 291836
ONNE 288894
PART 286346
TRES 281136
ESET 277346
IERE 276414
ELES 273759
TEDE 271093
SLES 270817
ENTR 267299
LEDE 262672
IENT 259191
ARTI 256234
TDES 251324
ESEN 249058
ENTS 248526
LEUR 245360
AVEC 245227
RLES 244372
EEST 243577
PORT 243125
CONS 241294
EQUI 240410
ANCE 239266
SION 238836
NTLE 237408
NSLE 236968
SDES 235542
ETTE 234610
LEST 227755
TANT 224473
RESE 224327
ETRE 224114
PARL 221734
CTIO 221245
ETDE 219802
SDEL 219052
COMP 218948
INTE 218153
URLE 217387
TEUR 216637
TLES 214885
LLES 214403
CONT 212898
ESCO 212439
SENT 212207
ENCE 211470
TIQU 208758
ESSE 207906
DELE 206667
NDES 202910
MAIS 202729
LESP 200076
ESTE 199375
ESON 199324
ONTR 198725
RENT 196791
ANTE 196702
EDAN 196261
LESE 195438
EPOU 193196
DESA 192306
SURL 192007
ENTL 191942
EREN 191253
EDEC 189779
EQUE 188707
DESE 188052
EPRE 187278
NTER 185533
ECOM 184831
ERES 182730
SPAR 182712
SSON 181515
SQUE 181060
ESPA 179902
VERS 178515
ILES 178145
OURS 174901
ISTE 174806
MBRE 173718
TURE 173187
AINE 173163
LESD 171734
LESA 171570
ESTA 169779
APRE 165518
ETAI 165155
CETT 165033
ENTI 163635
RANC 163139
TUNE 163122
OURL 162930
ANTS 162723
LESC 162586
NTEN 162568
ETLE 159263
ARLE 157565
ERIE 157313
OIRE 156894
LORS 156529
DECO 156121
ANDE 156080
IRES 155903
IONA 155107
RATI 153379
QUED 153214
ESUR 153095
LACO 152139
DEUX 150926
TDEL 150759
CEDE 150621
TOUT 149951
FRAN 149534
ONTE 149280
REMI 149124
EUNE 148698
AINS 148427
TENT 148228
QUIL 148054
RESS 148033
ITES 148012
UTRE 147838
NDAN 147375
ORTE 147302
ESSO 147039
VENT 147002
DECE 146969
DESC 146927
RESD 146864
ASSE 146780
ESPR 146561
ITIO 145497
SEDE 145292
RELE 144768
URDE 144109
ENNE 143880
EMIE 143236
ESPO 143206
MIER 142969
ESTR 142757
LECO 141642
ANTL 141546
FORM 140693
ELAC 140392
RDES 139541
DEDE 139228
IONN 138957
OUTE 138796
ITED 137800
DESP 137657
ABLE 136861
PREM 136780
LISE 136527
ONSE 135976
AUTR 135842
ENSE 135785
ALEM 135510
NEDE 135342
ERLE 135311
UELE 135066
NSDE 134728
EDEP 134140
ECHA 132832
ERRE 132701
DUNE 132386
EPRO 132312
ONNA 132260
VANT 131608
ESLE 131283
ISON 131061
ESTU 130587
ENDA 130491
UEDE 129918
ESRE 129768
RAND 129513
ESQU 128948
DERE 128924
NDEL 128766
ELAP 128038
RSDE 127893
LESS 127610
FAIT 127495
INES 127393
REST 127094
SQUI 126992
NTLA 126825
JOUR 126606
ENTP 126280
VOIR 125531
ESSI 125359
USSI 125130
NEST 125091
ISSE 125057
NNEE 124561
DESO 124170
GRAN 124114
COUR 123398
LARE 123226
RAIT 123116
MEME 123115
ESES 122923
URLA 122400
PUIS 122212
SCON 122115
ESPE 122059
ANTD 121891
TEME 121278
NTES 121138
RECO 121093
TAIT 120912
NSLA 120840
RSON 120584
ALES 119411
IONE 118754
ESTI 117934
TOUR 117645
ETOU 117231
STUN 117056
CEST 116320
EURE 116319
ENOM 116196
VILL 115817
ONST 115730
EDER 115546
TATI 115171
IEUR 114188
EAUX 113691
ESAU 113456
DEST 113303
DANT 113269
SDAN 112521
EURD 112007
SDEC 111951
REPR 111914
LLED 111841
DENT 111440
AIEN 111390
DESS 111354
TAIN 111307
IGNE 110987
LAPR 110143
TPAS 110129
SANT 109929
ANNE 109905
ESTL 109697
ALLE 109669
LLEE 109591
ENCO 109587
LITE 109383
SPOU 109298
TPAR 109207
ALIS 109140
EPLU 109080
NTUN 108963
IERS 108688
ETRA 108402
ESAN 108135
SCOM 108121
SONN 108045
NTET 107925
ELEC 107440
ECTI 107110
NCES 106959
ONDU 106954
AUSS 106576
TERE 106472
EDUN 106252
ELAR 105859
INDE 105688
UELL 105332
ERAL 105296
DEMA 105246
ERME 105080
ESOU 104931
ETRO 104860
NEES 104857
ESTD 104745
AVAI 104351
ECES 103151
SSIO 102909
NTRA 102732
AILL 102499
TOIR 102425
TROU 102296
STRA 102244
IRED 101628
SSUR 101598
UITE 101570
ERDE 101422
UNES 101162
IEDE 101133
LLEM 100791
URES 100110
ECOU 99768
ANTA 99653
TREL 99443
AQUE 99440
STRE 99352
NEME 99246
RELA 99115
OURD 98954
RTIE 98822
ETEN 98606
ETER 98272
OUPE 98150
LATI 98101
RESP 98071
LEMA 97835
SERV 97779
AITE 97763
ERSO 97755
REME 97446
EDEM 97311
GENE 97264
PEND 97147
ALOR 96870
SEST 96743
TERR 96711
REET 96699
CENT 96672
UVER 96625
DEPA 96124
TEMP 96080
LEPR 96080
ONSD 95905
ACON 95882
ENER 95640
TQUE 95600
REND 95587
QUEE 95560
ISES 95554
MAIN 95292
TCON 95028
AISS 94977
ISSA 94876
NDRE 94547
LERE 94372
ECHE 94228
MEDE 94221
ERNE 93730
NATI 93693
LIER 93590
NTPA 93588
AISO 93511
ESDU 93400
LESM 93350
TELE 93256
EALA 93144
ESSU 92973
ROIS 92938
LACE 92928
ESTP 92789
IENN 92774
ENDE 92528
EMON 92518
SSAN 92448
CIEN 92433
POSE 92389
TRAI 92341
VECL 92326
AGES 92236
EETL 92220
ITRE 92162
NIER 91988
EMAI 91662
MMEN 91568
MATI 91551
CHAN 91446
MPOR 91366
NCED 91244
ITDE 91151
ESDA 91017
NTAL 90940
PARA 90735
NERA 90717
FERE 90538
OMBR 90454
ONAL 90452
RUNE 90319
NOUV 90121
NIQU 89931
ERET 89828
ISTO 89761
ECLE 89434
LAVI 89422
UTIL 89390
RESA 89256
SOUS 89255
ORME 89013
SPEC 88977
URSD 88608
SIDE 88583
CONN 88487
AISE 88331
MONT 88308
TRED 87911
TSDE 87812
ONTA 87783
EGAL 87586
TESD 87512
ILIS 87377
DEME 87359
ELAS 87160
UNEP 87107
TREE 86861
RISE 86724
NALE 86708
ROUV 86667
EAVE 86665
PERS 86504
TDAN 86480
RTIC 86455
EPER 86431
ANGE 86346
ORTA 86219
TEST 85996
NCON 85724
PEUT 85469
ESMA 85443
EMAN 85404
SPRO 85266
MAND 85225
DENO 85219
BLES 85197
ESIN 85102
ETLA 84954
TERI 84940
SETA 84940
RALE 84511
SITE 84447
TRAN 84320
ESER 84316
MPLE 84296
PASS 84166
IENS 83981
DEVI 83885
SDEP 83773
UNEC 83742
EETD 83595
DEVE 83356
STRU 83309
ISEE 83285
NTAU 83261
EMPL 83136
EPRI 83002
ONCE 82864
PREN 82785
NOMB 82702
ELAN 82630
DONN 82610
NANT 82568
AINT 82561
EDET 82392
TAIR 82272
EMAR 82198
LEES 82074
EETA 82054
RANT 82029
TIVE 82016
EUSE 81901
ELAM 81856
REAL 81434
NNES 81375
TILI 81115
SECO 81091
INSI 81081
QUIP 81013
PLAC 80604
FOIS 80569
ACTI 80364
ROUP 80186
ENTU 80004
ETIT 79828
EVEN 79811
UVEN 79774
OGRA 79739
SSES 79541
LUSI 79436
COND 79344
TIER 79323
HIST 79122
GALE 79060
OUSL 78708
RESI 78661
RITE 78532
ERSE 78526
LEPO 78456
EPEN 78381
DIFF 78378
TREP 78218
EDEV 78076
SOCI 78066
SETD 78061
NTQU 78007
OURN 77999
DELI 77949
ENTC 77933
UBLI 77773
DETR 77647
TETE 77623
STER 77499
TRAV 77311
PRIS 77243
ESAL 77232
NENT 77165
CHER 77140
URSE 77027
ONDA 76993
ARDE 76660
CATI 76555
TEAU 76514
MMUN 76440
VIEN 76367
NESE 76280
DESD 76141
TITU 76128
OULE 76117
PROP 76105
AUDE 75872
ESSA 75868
APAR 75806
AVAN 75777
OMMU 75766
PARE 75719
RAIN 75575
SSER 75489
EMBR 75470
RIER 75319
LAIR 75292
LEQU 75226
ORMA 75208
EINT 75182
IDEN 75064
ISAT 74972
LECT 74971
IBLE 74940
RENC 74933
CEQU 74927
EILL 74903
ECLA 74869
AUTE 74781
TALE 74774
RCHE 74741
ELAT 74677
SPRE 74586
TESE 74560
VEAU 74390
SPLU 74372
CESS 74372
AITD 74307
RIQU 74265
DESM 74204
ARLA 74047
DESI 73878
QUEC 73710
ENDR 73695
GEDE 73693
LESO 73553
CERT 73468
CONC 73419
SATI 73102
EDEN 73097
ESCA 72923
ESCH 72862
NNEL 72860
REDU 72636
SIQU 72634
EFAI 72568
LESR 72540
PERM 72535
NSTR 72450
ICAT 72397
LADE 72356
QUIS 72336
EPUI 72135
PUBL 72022
RODU 71975
VAIT 71862
REQU 71859
STAN 71650
ILLA 71558
ELON 71544
ERAT 71522
IVER 71450
LETE 71405
LENT 71325
DEMO 71299
LIQU 71202
TIEN 70980
EREC 70947
RAPH 70915
ALIT 70863
TETR 70779
ATEU 70753
ERTA 70735
APPE 70619
ESDI 70582
TDEC 70426
GRAP 70412
CHES 70353
AGED 70113
LESI 70035
REPA 69949
AGNE 69892
USLE 69841
RTAI 69585
TERN 69496
SANS 69335
SUNE 69279
LANC 69278
BIEN 69155
ERLA 69149
UELA 69129
RQUE 69082
ONET 68983
SELE 68812
TROI 68777
LOGI 68775
EMBL 68747
ELAV 68729
LAME 68680
EREP 68612
TPOU 68596
LEET 68535
PRIN 68519
SSEM 68263
LAGE 68232
ETAT 68217
ESLA 68096
DECH 68027
SEMB 68021
NSUN 68007
UTES 67996
DEPR 67948
ISTR 67843
ITUE 67824
LENO 67741
LEPA 67473
ECTE 67468
ONTI 67384
QUEN 67342
ICIE 67334
ANCA 67333
NTSE 67297
AETE 67191
CHAR 67166
GROU 67152
NTSD 67103
ESPL 67097
UREN 67082
REGI 67076
PERI 67041
EEDE 66998
STEN 66964
SETL 66843
ARCH 66830
MILL 66698
SEME 66666
ELEP 66645
SSED 66629
EMES 66623
DERN 66614
MOND 66374
ERED 66294
NTIN 66277
RDEL 66229
SUIT 66161
EDEF 66099
STES 66080
ESAV 66034
OLOG 65984
TSUR 65940
IALE 65899
APHI 65831
SAIN 65824
EGRA 65771
ACOM 65638
NTIE 65629
RETE 65614
TTRE 65584
EPAS 65547
ENES 65528
LAMA 65469
ENOU 65449
RSQU 65408
AUTO 65356
IMPO 65294
RAVA 65284
SESP 65153
ESTC 65150
ECET 65123
RINC 64948
ELUI 64893
SERE 64891
SQUA 64803
ETES 64717
ELEM 64572
AVOI 64493
ASSI 64437
EREM 64219
REEN 64077
DEPE 64052
LAIS 63848
ELAF 63835
RETR 63830
LIEU 63829
PROD 63823
LLEA 63823
EENT 63819
ONTL 63801
LECH 63760
NTCO 63728
VITE 63687
IONP 63652
ANTI 63506
ONES 63492
ITAL 63491
COUP 63489
ICUL 63478
ANSU 63445
NCAI 63437
RECE 63426
SPER 63380
RTAN 63369
DONT 63364
LESF 63342
OURC 63338
EFOR 63330
TEET 63277
FOND 63255
ISDE 63236
ONSA 63183
INED 63168
TABL 63151
EVIE 63110
REUN 63084
ESME 63032
ARTE 63026
SIGN 62987
NQUE 62974
TCOM 62965
UJOU 62887
AUCO 62880
CAIS 62858
ITEE 62733
CESD 62662
UTIO 62589
RIEU 62541
ELEV 62531
IREC 62489
LELE 62486
DEPU 62405
UNED 62361
UDES 62346
ACTE 62242
ESMO 62166
CIPA 62075
STDE 62074
LASS 62068
USDE 61891
AMER 61865
SETR 61823
PETI 61821
NTDA 61721
RESL 61707
AITP 61666
UIPE 61645
OSIT 61613
LONG 61544
IMEN 61529
ARRI 61518
RMET 61505
MBLE 61502
FAIR 61286
FFIC 61193
ERNI 61165
INCI 61162
USIE 61161
SDEU 61094
TSON 60973
VERT 60972
PARU 60904
INST 60874
SSEN 60773
AUNE 60772
RANS 60745
ERSI 60518
LEVE 60506
NECO 60451
EVER 60434
LLEC 60427
SERA 60423
SANC 60421
NTAI 60375
CTEU 60332
UCTI 60312
EDED 60308
SEUL 60256
QUIE 60044
TORI 59994
TREA 59985
ONSI 59949
LLER 59943
ECRI 59901
EDUC 59891
CRIT 59865
SDEM 59763
ARGE 59750
DETE 59713
QUEP 59689
ESCE 59682
UNEA 59669
NDEP 59615
DELO 59603
CELL 59590
AITA 59569
ESAC 59550
STIT 59544
ESEC 59521
NNAI 59478
ISQU 59456
EMPS 59351
RIEN 59288
NTDU 59250
ONTD 59213
ENRE 59213
MOIN 59205
DEPO 59205
RNIE 59163
NCIE 59068
REPO 59010
ONCO 58973
EDEB 58940
MMES 58914
ECOL 58908
EEPA 58812
NPAR 58809
OURA 58747
UNEF 58715
EAUC 58672
ACHE 58649
EAUD 58646
OINT 58560
DITI 58555
OURE 58552
ATUR 58545
LATE 58527
SONP 58516
NIVE 58512
ELET 58477
SITI 58447
REAU 58391
ISME 58345
ANCI 58311
ADES 58305
SIEU 58232
ORSD 58222
MINI 58121
POSI 58048
EFRA 57963
LAPL 57950
LANT 57915
TEDU 57910
RESU 57897
TPLU 57892
PPEL 57837
UEST 57825
NCER 57801
DEPL 57793
TREC 57749
APPA 57724
ITAN 57720
REES 57714
SONS 57668
APRO 57657
NELE 57653
ESAI 57639
NERE 57557
USQU 57483
ENAN 57451
ILIT 57331
LETA 57329
GUER 57263
ERUN 57227
LISA 57202
TEND 57049
AMME 56972
EALI 56858
PERE 56745
OMPO 56708
LIEN 56625
DIRE 56598
LEMO 56500
SAGE 56408
SAUT 56401
STIN 56385
MINE 56364
UESE 56312
ESAR 56285
UNDE 56273
METR 56187
ATIQ 56085
PPAR 56042
SAVE 55954
DESR 55891
MARI 55823
METT 55770
URUN 55723
TERM 55721
UISE 55712
NIST 55708
ISEN 55705
ONTP 55702
SSOU 55664
EPLA 55650
UVEL 55555
ONDI 55548
PROC 55506
NAGE 55465
ATTE 55355
TALA 55318
MPOS 55215
OQUE 55211
ROIT 55123
SOUV 55120
EMEM 55105
ELQU 55075
ENFA 54948
IEME 54936
UVRE 54781
FICI 54780
NDEC 54761
RERE 54620
URAN 54537
ELAL 54433
ISLE 54371
CLES 54366
ULIE 54349
LESL 54298
LLEU 54285
POSS 54279
ITEN 54253
LAPO 54249
UESD 54232
ERAI 54166
QUEM 54141
STEM 54137
ILSE 54075
CONF 54038
ACHA 53945
AFIN 53878
UXDE 53831
EREE 53796
JOUE 53741
ETEM 53737
SESE 53719
RESO 53639
EMET 53579
ISTI 53520
EFFE 53516
SILE 53459
ITPA 53424
TDEP 53403
ECAR 53397
DISP 53387
FFER 53367
STOI 53328
ERVE 53319
TUEL 53267
ORSQ 53260
USES 53211
SFOR 53203
ISER 53201
NAIS 53167
TERA 53122
TENA 52963
NESD 52862
ENET 52836
ARIS 52822
ISSI 52801
SCEN 52736
PAGN 52715
POLI 52694
LECA 52671
ELEN 52667
SEAU 52553
TREM 52543
EDIT 52539
NCHE 52509
TLEP 52499
INAL 52482
DUIT 52480
QUAN 52468
URED 52436
RONT 52421
LQUE 52414
NCEE 52382
URCE 52250
SDET 52160
SIMP 52145
EVEL 52136
QUEA 52100
FORT 52095
DECI 52092
ANIS 52067
NEPA 52054
URSA 52042
ENSI 52006
ITAI 51973
PHIE 51894
OINS 51866
BRES 51851
APLU 51809
AITL 51760
CIDE 51757
SCHA 51698
DERA 51664
HABI 51635
ITEA 51566
INEE 51561
ARME 51514
UNEE 51509
ALED 51489
MERI 51474
NCIP 51460
CHAM 51423
ITLE 51404
BREU 51402
CIAL 51331
VEME 51299
STLE 51298
IREE 51293
RAVE 51255
UILL 51254
TTOU 51207
EXTE 51197
ESFO 51184
TESS 51112
OISE 51025
UCHE 50919
IFFE 50787
PARI 50773
CULT 50685
NTRO 50657
EURO 50629
REVE 50629
NEUR 50621
NGUE 50588
PLAN 50566
ITUN 50523
TEEN 50521
SONA 50482
BLED 50465
TESA 50465
ISAN 50437
RTDE 50364
LASE 50343
ELAD 50295
UPAR 50260
REDA 50245
SALA 50128
UPER 50091
ESOR 50081
STAT 49904
ARQU 49896
LAFO 49892
NSTA 49856
TOUS 49797
NCOR 49793
ELEU 49749
ESEL 49630
NSET 49588
HOMM 49572
REUS 49564
ULES 49537
PAYS 49532
TEES 49525
IETE 49503
ONEN 49451
PARC 49439
FIND 49420
ONLE 49369
IDES 49354
NSTI 49234
ITIQ 49205
UELQ 49128
EAUS 49040
LUSD 48920
SEES 48832
SDUN 48787
ASSA 48783
LEAU 48774
LEDU 48709
EFER 48610
ETTR 48603
ERMI 48592
IEUX 48583
MEDI 48534
SOND 48430
AITR 48428
NTAT 48404
CORE 48398
TDUN 48397
ESDO 48327
DEMI 48322
COLL 48315
CTIV 48309
NTED 48284
ERTE 48266
RECT 48238
FINA 48226
RESC 48147
MISS 48129
ILLI 48129
RRES 48129
NTAN 48125
LESU 48114
TECO 48109
RMAT 48108
EAUT 48079
VISI 48069
DESF 48065
NESO 48049
SUIV 47975
EQUA 47956
ETSE 47936
ALIE 47919
RIST 47907
CITE 47894
EVOL 47877
ERVI 47860
STRO 47856
TRAT 47838
ATRE 47803
AVIL 47793
RIVE 47756
TALO 47696
OCHE 47626
SURE 47528
UEET 47466
TIME 47445
LADI 47430
SGRA 47418
LACH 47407
ARUN 47395
ENIR 47388
ILDE 47379
QUER 47364
SLEC 47356
EDON 47353
ABIT 47349
QUET 47345
TQUI 47344
UVEA 47344
SONE 47333
IFIE 47323
NTSO 47289
NDEM 47261
INIS 47249
DONC 47236
ESTS 47234
LACA 47189
DECA 47188
EMME 47162
ONPE 47155
TLAP 47141
UTDE 47138
AMIL 47090
AISA 47015
NETA 46972
IONL 46969
SITU 46936
EPEU 46933
EUVE 46922
ESNO 46908
EFOI 46873
NTSU 46869
TELL 46864
NEET 46855
SDER 46841
NQUI 46819
MODE 46801
RUCT 46760
ETUN 46722
ROLE 46672
IDER 46624
LAND 46550
TRUC 46538
PROF 46530
EGEN 46402
EMED 46388
ESIL 46381
SANN 46337
UCOU 46324
EJOU 46310
SPRI 46278
GION 46274
ELIN 46234
OUVR 46204
ETED 46201
LEPL 46178
DUCO 46173
RACT 46155
DEFA 46150
TDON 46149
TAUS 46144
MILI 46101
TAUX 46089
POIN 46048
TUDE 46013
ANSD 45960
UIRE 45918
TEIN 45916
SSAI 45880
TTEN 45865
ESAP 45829
MORT 45786
ANTP 45780
ANCH 45771
AMAI 45735
BRED 45727
SENC 45723
EESP 45704
ETAN 45671
RIGI 45669
EBUT 45599
NCOM 45598
ERNA 45569
OURR 45554
LIST 45431
TEPA 45321
NSON 45263
DEDI 45263
TTER 45261
NELL 45170
DROI 45110
ANDA 45107
OLIT 45084
IRDE 45078
RRIE 45039
INDI 44960
UERR 44947
ORIG 44945
EULE 44927
ENVI 44918
NTEL 44917
EREA 44915
UISS 44892
ALDE 44879
SORT 44852
TENC 44838
UREL 44831
DESL 44831
TPRE 44828
ESLI 44786
ERSA 44780
IEST 44771
ARAI 44767
NSEI 44743
AUXD 44734
IVRE 44629
RSES 44603
ANSC 44596
STRI 44575
SPOR 44502
PREC 44444
ROCH 44411
SETE 44381
SEPA 44379
SEUR 44358
NSER 44358
OSSE 44332
NCEA 44330
EAUN 44260
CTUE 44238
RETA 44230
IGIN 44199
EDIS 44193
DAUT 44191
AUSE 44189
ORTI 44139
ULAT 44130
AVER 44090
RAPP 44064
SENS 44050
TEQU 44007
RAIS 43992
TELA 43974
JUSQ 43956
STED 43936
IONC 43903
ENTO 43882
TECH 43882
ORIE 43834
RELI 43833
EDEU 43661
NFOR 43644
LUTI 43588
DEVA 43573
IELL 43552
NTSA 43529
SESD 43519
PERA 43492
STAL 43450
RGAN 43380
DEBU 43364
RECH 43286
ELOP 43258
SESA 43203
SMAI 43199
ORGA 43193
RICA 43126
UILE 43126
QUIA 43091
ERCE 43018
ISED 42955
UREE 42948
LESB 42946
EREL 42922
POUV 42854
CEPT 42845
DUCT 42821
ECOR 42817
UNEM 42803
LETR 42774
SEQU 42747
URET 42737
PARD 42735
RTOU 42724
ESID 42707
RADI 42698
ENSU 42642
EMIN 42626
NSCE 42573
RLAP 42564
TRIC 42558
ATER 42516
ERIC 42486
NCTI 42480
ERCH 42472
OISI 42458
VELL 42456
EETS 42394
TDEV 42392
DEFI 42389
EURA 42366
SCRI 42356
CCES 42337
SCOU 42288
EFIN 42274
OMPA 42271
ELAB 42250
ECEN 42242
RAGE 42225
EPOS 42225
ESTO 42219
COUV 42204
IPAL 42200
LAMO 42137
UEUR 42102
ANDI 42101
ANGL 42096
TSET 42089
USSE 41985
CESE 41982
RMES 41951
NESA 41940
RMEE 41930
ISPO 41860
OCIA 41853
ONSO 41851
ONNU 41806
RTES 41773
UANT 41731
CLAS 41672
LANG 41639
TALI 41621
VELO 41618
ECRE 41613
TAGE 41567
STIQ 41520
VAIL 41508
REUX 41475
ITER 41470
ALEN 41460
RETO 41400
IREA 41366
UNET 41356
ISLA 41355
ETUD 41354
TLEC 41324
ODUI 41302
ELIE 41299
ORCE 41242
EMIS 41242
DEBA 41238
RACE 41228
OPUL 41226
LOPP 41225
ANSS 41206
ISTA 41186
UIDE 41089
UNIV 41076
EESD 41070
PTIO 41053
FAMI 41049
ITET 41035
LITI 41004
UENT 40960
TSOU 40947
NTEE 40940
ESVI 40936
IREL 40927
ISET 40916
NTOU 40884
NEAU 40860
ERSL 40844
QUAT 40821
TIED 40821
NTCE 40810
APPR 40772
TPRO 40736
NDED 40735
TAIL 40719
BLEM 40712
RSLE 40627
TDEM 40594
EGIO 40579
NTPO 40534
YSTE 40530
OLON 40506
PULA 40479
URNE 40475
ROPR 40472
ECEL 40460
UNER 40445
MANI 40437
ETEL 40427
ENQU 40402
ACEA 40369
SDEF 40364
AUXE 40324
ICHE 40310
TENS 40253
PELE 40249
TEGA 40222
ARRE 40217
ELEG 40215
UESA 40188
TRUI 40174
GIQU 40130
ISIO 40102
MELE 40006
PPOR 39967
REMP 39956
IFIC 39926
NAIR 39916
STOU 39910
NEPE 39886
LLEP 39789
SINT 39766
MITE 39737
AITS 39718
LAPE 39689
LESV 39678
ONCT 39616
STLA 39616
ELAG 39601
SPOS 39588
BEAU 39554
EVOI 39528
ARES 39528
TINE 39503
STPA 39457
NORD 39436
ETAL 39429
TESP 39424
ELOR 39405
DIST 39381
MARQ 39373
ETEC 39352
VECU 39336
IRON 39310
IERD 39241
ATIV 39202
SSEU 39190
MMEL 39190
NFRA 39184
SAIS 39152
TICU 39113
ARIE 39104
ICIP 39099
UECE 39088
FINI 39035
SDED 39034
HAUT 39025
RDAN 39008
LAPA 39002
NDER 39000
IVAN 38994
HAMP 38979
JEUN 38978
GANI 38967
SIST 38933
ERAU 38917
IVES 38911
FANT 38904
SIBL 38884
ALAC 38884
CREE 38812
NPRO 38782
POPU 38780
SDEV 38771
PECT 38740
ENDU 38739
ROPO 38734
RITA 38708
AREN 38630
DETO 38626
IENC 38622
PROV 38595
CAIN 38578
EXIS 38568
NEMA 38540
OPPE 38539
LEGE 38503
REFE 38491
ANTQ 38488
LAVA 38421
MISE 38404
ROMA 38387
TAIE 38362
LLET 38349
DURE 38337
UMEN 38276
FONC 38239
TAVE 38219
XIST 38218
DUMO 38215
ASON 38159
COLE 38139
ETAU 38110
RCES 38105
ENAT 38089
OURT 38078
IATI 38076
CELE 38066
NTPR 38055
OCIE 38043
OMMA 38035
RLEC 38002
LAQU 37963
OMPT 37916
VALE 37899
MIQU 37878
MUNE 37782
EREG 37777
NAIT 37701
INDU 37689
LAFI 37679
RIES 37675
LINT 37665
VOLU 37661
TDET 37660
NTEM 37657
NOMI 37656
NAUT 37653
INCE 37615
NGER 37602
OITE 37568
DEFE 37565
UNCO 37554
SERI 37545
USTR 37538
RCON 37533
SAPP 37473
LALI 37458
MPAG 37453
ONQU 37431
TLAC 37408
LLEN 37368
TERL 37359
LELA 37357
TESL 37356
LASO 37352
TRAD 37348
OYEN 37346
SRES 37309
STCO 37287
VIER 37273
AVIE 37227
SEEN 37214
ESIT 37212
CEPE 37203
ROPE 37203
REMA 37192
NNEM 37186
URRE 37140
MESD 37130
CUNE 37115
ACES 37110
SINS 37100
NFAN 37095
BILI 37084
NPOU 37082
TEDA 37074
ULAI 37065
AGEE 37059
ESUN 37020
ASDE 36966
LABA 36913
ILRE 36894
SPON 36874
IREN 36852
LEVI 36816
ONOM 36803
NSID 36790
CHED 36786
SSOC 36779
DECR 36767
STAU 36730
INIT 36719
NEPO 36716
ICAI 36674
LAVE 36670
NDUN 36668
TRIB 36656
CELU 36653
PEDE 36630
RECI 36606
TITE 36574
SSIB 36539
TTES 36536
AMEN 36527
ESGR 36524
LEEN 36524
RLEP 36496
ERRI 36484
ACCE 36418
MENE 36403
SSEE 36390
NOMD 36375
RTEN 36370
HERC 36301
EEEN 36222
SDON 36220
RLAC 36170
TITR 36154
ORDE 36152
ISPA 36113
STAR 36106
RSET 36105
RTIS 36103
QUAL 36089
SSIN 36075
ANTU 36026
FICA 36024
LEPE 36022
GENT 36015
RIBU 35982
SELO 35972
ATTA 35966
CALE 35950
EESA 35950
LUST 35936
NALI 35811
NPRE 35800
ELER 35787
UTEU 35786
LLEL 35765
EDUP 35764
EGRO 35745
CEAU 35705
EIND 35695
DETA 35667
OMPL 35664
UROP 35660
TEUN 35655
UEME 35644
CTUR 35640
LIGN 35614
ABOR 35600
CELA 35589
UNEV 35584
INSD 35575
DELU 35539
NNEN 35518
ETCO 35502
OLLE 35492
DIVI 35465
EALE 35459
EENP 35457
UXET 35431
UTEN 35401
EURP 35390
EMAT 35376
BITA 35334
UEDU 35309
NEEN 35257
XEMP 35229
EENC 35150
MMED 35136
LAFA 35130
AURA 35128
ANSP 35095
EXEM 35093
EROU 35066
EUTE 35046
ALAF 35042
EFUT 34994
OISS 34982
EENS 34965
RUIT 34957
DEFO 34947
NCEP 34914
COLO 34906
EELL 34893
UIVA 34892
DEQU 34881
EREF 34877
ESOI 34847
ETDU 34817
ONRE 34773
ONPR 34770
URSP 34750
SYST 34731
NDEN 34731
ECUN 34727
AISL 34721
TENU 34705
EXPL 34688
ATRI 34683
GINE 34663
FACE 34639
MUSI 34638
MERE 34591
COMB 34574
OGIE 34571
ITEP 34567
OTES 34566
SLAC 34547
TATS 34495
OUIL 34493
NOMM 34472
IVEA 34423
APER 34415
DERO 34409
MARC 34408
IMPL 34397
NSSO 34385
NSEN 34355
RATE 34334
RLEM 34325
PALE 34305
CIER 34268
HAQU 34251
FECT 34240
GERE 34236
STOR 34224
EMOI 34215
AFOR 34201
LASU 34198
SLAP 34160
CTER 34150
EDEG 34136
ETSO 34123
RANG 34087
CESA 34087
NVIR 34084
NLES 34065
OLES 34053
IVIT 34040
DESB 34037
NPEU 34016
MUNI 33961
BLIC 33950
IERR 33923
CHAQ 33920
EUNI 33919
SOIT 33914
LAUT 33914
ESAM 33910
RMIN 33899
ACCO 33893
ATRA 33873
HEUR 33791
UENC 33781
ESLO 33780
SDEB 33762
SESS 33747
VIRO 33738
LEDA 33734
ONSP 33719
EETE 33696
ARAC 33684
TANC 33673
IERA 33648
NECE 33628
LEDI 33623
GEME 33607
SAPR 33551
LLAG 33545
PROT 33531
IEND 33515
DUPA 33507
ATEA 33497
NVER 33496
LERO 33485
UILS 33481
TICI 33476
ITEC 33465
ASSO 33457
SDEN 33384
EESE 33382
VERN 33350
ACRE 33332
RITI 33271
AITU 33261
EIGN 33250
ENLE 33231
IEET 33227
TARD 33224
TRIE 33210
EVIL 33180
FFET 33137
ESCR 33092
HANT 33082
NETE 33078
NSEM 33077
RTEM 33076
SUCC 33064
REDI 33050
TSES 33026
EUXD 33023
ENTQ 33012
VENI 33002
OSSI 32980
EALO 32955
TIFI 32860
UMON 32855
ONPO 32843
VENU 32837
NESS 32808
CULI 32802
ALET 32788
PIER 32783
NSPO 32763
EENA 32757
UEES 32754
TALL 32746
ESEP 32707
TUTI 32684
DRES 32675
ONSS 32667
ESBA 32665
ENPA 32662
ONAU 32655
TRER 32628
ENTT 32589
ETAB 32588
ONSU 32581
IMIT 32571
COTE 32564
QUIN 32556
ANIE 32530
MEUN 32511
LEGR 32502
REIN 32493
RTIR 32487
EPOR 32487
EAUP 32453
EDUR 32448
DURA 32447
DEGR 32444
SEIL 32442
BORD 32426
ITQU 32412
ERAP 32412
ESEX 32401
RNES 32382
DESU 32348
NCOU 32332
ITLA 32313
ENEF 32281
USTA 32275
ILSA 32267
CIEL 32235
OUSS 32205
UESO 32180
RSDU 32168
ILIE 32160
NDIS 32151
ESMI 32151
UATR 32148
RENA 32141
MEMB 32137
BOUR 32113
LITA 32113
UNEN 32103
ACOU 32053
HANG 32052
ETIE 32035
SONC 32018
ANTC 32010
FORC 31987
LESH 31978
DESV 31966
UCCE 31952
EGLI 31947
SAUX 31939
VRES 31928
OUSE 31927
ONTC 31926
SEET 31921
TREN 31915
LESN 31914
IREP 31912
OUCH 31908
ALEU 31907
UCON 31888
ERSD 31841
ONPA 31822
NSUI 31799
LESG 31765
SLEP 31764
RMAN 31759
RMED 31752
PARS 31739
ACTU 31723
ECTU 31705
PASD 31704
ILNE 31702
CARR 31691
NCEN 31686
SUNI 31675
ELED 31656
PENS 31642
ANDS 31637
RENO 31637
EVAL 31621
APPO 31618
UREA 31606
MOYE 31593
TESO 31577
NOTA 31557
BERT 31510
INEA 31507
ENTM 31485
MPRE 31429
NDEE 31418
OISD 31393
CORD 31390
CARA 31362
SAVO 31346
SESC 31336
NTIO 31328
SSIE 31309
EMPO 31262
ULTU 31260
GLIS 31253
ETEE 31249
ARIA 31246
REMO 31217
DITE 31213
NTIL 31205
GARD 31179
ONFI 31177
ESTT 31174
SLEM 31164
MMER 31163
ALAD 31106
EFIL 31062
UTET 31038
QUUN 31034
OFFI 31030
ENAI 31021
LTUR 31011
ITEL 31010
ITTE 30983
EUDE 30977
RIED 30970
NESP 30968
OMPR 30913
NTPL 30867
OLUT 30867
DIEN 30855
CHEV 30851
EPTE 30835
NDUS 30820
ERON 30810
MPLA 30803
ALAR 30757
ETQU 30739
OMBA 30716
ALAP 30713
ESHA 30705
VICE 30693
CEET 30686
URDU 30683
BASE 30677
ALEE 30670
NTAC 30668
ICES 30656
INET 30653
INER 30653
CROI 30652
REVI 30626
ESRA 30622
OUVO 30617
ODUC 30616
DECL 30578
UVOI 30545
RICH 30541
TEPO 30532
EFON 30527
SCAR 30500
TDEN 30499
ONSC 30438
ETHE 30438
UEDA 30432
EENE 30426
NPER 30421
UNEL 30368
INAT 30340
ECED 30337
ORTS 30334
ERIT 30328
SETS 30323
CEDU 30321
UALI 30302
REAT 30302
ARDI 30297
EETP 30282
MESE 30269
LIVR 30268
DEFR 30263
SUPE 30225
YANT 30208
UNIS 30176
UILA 30167
ERDA 30149
LESQ 30147
SLAR 30049
SOUR 30042
ANSE 30041
TIVI 30029
ESIG 30029
NNER 30020
ATOU 30017
CHAT 29994
ESIE 29994
EVIS 29990
RLAS 29988
TDER 29987
MENC 29982
FILM 29946
LASA 29941
NTEG 29927
ESVE 29907
NETR 29904
ENPL 29899
LENE 29896
EDUM 29865
EVAN 29860
EANN 29847
TIEL 29840
URSO 29837
PARF 29827
ARTD 29820
EDIA 29816
LICA 29802
MINA 29801
NEQU 29793
ULTE 29785
ITAU 29780
SAIT 29771
MERC 29768
UPRE 29746
MPTE 29739
SCIE 29736
ELAI 29727
CIET 29720
AUJO 29718
LINE 29715
PRET 29701
OUDE 29679
IGNA 29676
STEL 29651
TRET 29650
NITI 29649
SALL 29645
EPUB 29638
EINE 29624
ASES 29614
NTTO 29612
ROYA 29611
SAVA 29596
SURU 29560
TRAL 29517
OURU 29507
ECHN 29493
SCHE 29487
OUES 29475
SESO 29471
SENF 29470
NSIQ 29429
OUJO 29426
DEBO 29406
OMEN 29395
ORIT 29363
CULE 29363
OMAI 29358
GNES 29319
UEPA 29311
TAPP 29300
NGEN 29250
TERD 29210
NANC 29206
LEDO 29189
NONC 29174
SDIF 29160
BLEA 29159
NELA 29130
TOUJ 29113
RESQ 29100
REFO 29066
POQU 29056
PECI 29044
AGUE 29043
ESIM 29020
RNAT 28997
EPOQ 28960
LARI 28931
TEFO 28929
ESEM 28914
NITE 28912
UITS 28909
INSE 28903
NCHA 28892
CIPE 28886
ISSO 28876
LUID 28875
NNED 28859
NATU 28845
CHEL 28843
RGEN 28841
RIME 28831
ITAT 28829
RIEL 28819
CREA 28819
MATE 28819
TLEM 28797
ORAT 28796
EDEA 28791
SREC 28781
ROGR 28780
SSIT 28773
SMAR 28763
GRES 28748
UPES 28746
BLEE 28739
RETI 28734
ISIE 28712
TTRA 28711
LABO 28694
ERMA 28679
ESFR 28671
SINE 28658
EUXE 28650
RTER 28631
ACED 28625
RECU 28619
SPEU 28613
ISEA 28609
ROTE 28590
MESU 28583
QUIT 28557
ECAN 28552
ONLA 28521
LATR 28504
UNAU 28491
ELIG 28483
CHEE 28479
XTER 28473
ERRA 28471
OMDE 28468
ONTS 28466
AGEA 28423
SIEC 28421
CENE 28407
PION 28385
INEM 28327
ISEP 28323
CHEM 28311
LERA 28310
ESFI 28306
FEMM 28303
INAN 28282
SSEA 28255
RIET 28254
ESPI 28219
RELL 28199
SEIG 28197
ETDA 28191
ERQU 28188
AMPI 28162
RCHI 28118
TLAR 28118
MPER 28116
PITA 28108
IVEM 28104
EAPP 28083
EUXC 28080
ESNE 28045
IANT 28044
LIMI 28040
QUID 28036
HIQU 27988
DOIT 27966
ESFA 27966
JEAN 27959
EELE 27951
EMPE 27943
IBER 27941
ERIO 27939
TROP 27932
AISD 27930
SMEM 27926
GOUV 27923
EUXP 27920
ALLA 27876
ILET 27873
OBJE 27872
GUES 27867
NAVE 27854
IECL 27852
IEDU 27838
TLEU 27833
DUCA 27833
UIES 27823
ESVO 27818
REIL 27806
ESUI 27794
NISE 27772
SLEN 27766
EANS 27755
AMOR 27736
TDEF 27721
PROG 27701
TREF 27698
UEEN 27675
CORP 27629
NEFO 27629
ALAI 27625
OUEU 27623
SALE 27611
PEUV 27607
URNA 27606
ETET 27566
TENE 27554
SJOU 27546
EACT 27539
URDH 27535
ISEL 27517
NEPR 27492
ESCI 27478
AUXA 27478
SREP 27465
NCEL 27462
LOCA 27457
NDET 27443
CONV 27406
ARIT 27398
NDON 27394
EBRE 27360
EMIL 27347
NTAG 27343
DHUI 27332
ALAM 27332
RAIR 27330
IONI 27315
URQU 27306
EGUE 27286
IEES 27267
URTO 27227
EREV 27217
OLED 27216
RDRE 27198
RTED 27194
IELE 27193
OPER 27179
MEET 27160
ESAS 27136
LEXI 27128
SEPT 27111
MENA 27105
MEIL 27094
AIDE 27064
VECD 27062
UISL 27027
NNOM 27019
MELA 27000
EDUS 26993
ACET 26965
CONO 26961
RRAI 26941
PARM 26938
ICAL 26927
SLAM 26898
REEL 26887
EETC 26874
DEAU 26868
RDHU 26837
RALA 26829
IDED 26802
ASTE 26743
IREM 26742
LIND 26725
SENP 26714
RQUI 26705
IONT 26695
TYPE 26682
INEL 26679
REVO 26670
EUXA 26661
HEDE 26656
LUNI 26647
TRON 26647
SELL 26646
SSEL 26640
ORTD 26630
EJEU 26617
REPE 26614
PROB 26604
OGIQ 26595
ROVI 26586
TEAL 26584
IENE 26581
NTDI 26572
CILE 26556
TIRE 26551
PELL 26529
URSS 26528
TAMM 26506
TIST 26482
CART 26470
NTSS 26458
RRIV 26457
ENOR 26457
MAGE 26414
URSU 26392
ALBU 26384
ETSA 26374
IDEM 26374
ECER 26372
VICT 26344
UDEL 26328
USEE 26306
RVIC 26292
AURE 26262
EANT 26261
ALIN 26253
EGRE 26249
CINE 26247
AUMO 26235
ANGU 26229
ENSO 26212
TECT 26205
ADMI 26205
ENIL 26187
OUVA 26142
INEN 26113
SERL 26112
PRIM 26098
ENAV 26097
RLAR 26093
AISI 26086
UEIL 26084
SSAG 26079
FFEC 26065
EILS 26065
TCHA 26056
REPU 26054
ERVA 26032
COUL 26022
DESG 26021
AREC 26015
OTAM 25982
ISAU 25952
ANTO 25925
URAI 25915
TETA 25911
ELEB 25899
EFAC 25896
ISCO 25886
ISSU 25884
EEPO 25884
RPOU 25874
ARCE 25849
ENDI 25840
UTOU 25839
ERDU 25829
INTS 25812
TESC 25801
BLIE 25797
META 25791
OURP 25784
APIT 25783
AUXP 25778
NSIO 25773
ROJE 25772
LAPP 25770
NPLU 25765
SAME 25742
CTIF 25735
EPET 25725
PROJ 25711
TEXT 25709
OUTI 25707
UMAI 25698
LBUM 25652
NISA 25649
ILSS 25635
TDED 25626
IRLE 25624
TTED 25621
APLA 25619
GESD 25602
SETU 25586
MMEE 25586
IODE 25573
EPOL 25560
ENFR 25557
NTEA 25528
EADE 25516
SCES 25486